
---------- Begin Simulation Statistics ----------
simSeconds                                   0.296141                       # Number of seconds simulated (Second)
simTicks                                 296140928500                       # Number of ticks simulated (Tick)
finalTick                                296140928500                       # Number of ticks from beginning of simulation (restored from checkpoints and never reset) (Tick)
simFreq                                  1000000000000                       # The number of ticks per simulated second ((Tick/Second))
hostSeconds                                     90.93                       # Real time elapsed on the host (Second)
hostTickRate                               3256664799                       # The number of ticks simulated per host second (ticks/s) ((Tick/Second))
hostMemory                                     654120                       # Number of bytes of host memory used (Byte)
simInsts                                    100000000                       # Number of instructions simulated (Count)
simOps                                      125794040                       # Number of ops (including micro ops) simulated (Count)
hostInstRate                                  1099700                       # Simulator instruction rate (inst/s) ((Count/Second))
hostOpRate                                    1383357                       # Simulator op (including micro ops) rate (op/s) ((Count/Second))
system.clk_domain.clock                          1000                       # Clock period in ticks (Tick)
system.cpu.numCycles                        592281857                       # Number of cpu cycles simulated (Cycle)
system.cpu.numWorkItemsStarted                      0                       # Number of work items this cpu started (Count)
system.cpu.numWorkItemsCompleted                    0                       # Number of work items this cpu completed (Count)
system.cpu.dcache.demandHits::cpu.data       63860327                       # number of demand (read+write) hits (Count)
system.cpu.dcache.demandHits::total          63860327                       # number of demand (read+write) hits (Count)
system.cpu.dcache.overallHits::cpu.data      63889362                       # number of overall hits (Count)
system.cpu.dcache.overallHits::total         63889362                       # number of overall hits (Count)
system.cpu.dcache.demandMisses::cpu.data      1092982                       # number of demand (read+write) misses (Count)
system.cpu.dcache.demandMisses::total         1092982                       # number of demand (read+write) misses (Count)
system.cpu.dcache.overallMisses::cpu.data      1129483                       # number of overall misses (Count)
system.cpu.dcache.overallMisses::total        1129483                       # number of overall misses (Count)
system.cpu.dcache.demandMissLatency::cpu.data  85467910000                       # number of demand (read+write) miss ticks (Tick)
system.cpu.dcache.demandMissLatency::total  85467910000                       # number of demand (read+write) miss ticks (Tick)
system.cpu.dcache.overallMissLatency::cpu.data  85467910000                       # number of overall miss ticks (Tick)
system.cpu.dcache.overallMissLatency::total  85467910000                       # number of overall miss ticks (Tick)
system.cpu.dcache.demandAccesses::cpu.data     64953309                       # number of demand (read+write) accesses (Count)
system.cpu.dcache.demandAccesses::total      64953309                       # number of demand (read+write) accesses (Count)
system.cpu.dcache.overallAccesses::cpu.data     65018845                       # number of overall (read+write) accesses (Count)
system.cpu.dcache.overallAccesses::total     65018845                       # number of overall (read+write) accesses (Count)
system.cpu.dcache.demandMissRate::cpu.data     0.016827                       # miss rate for demand accesses (Ratio)
system.cpu.dcache.demandMissRate::total      0.016827                       # miss rate for demand accesses (Ratio)
system.cpu.dcache.overallMissRate::cpu.data     0.017372                       # miss rate for overall accesses (Ratio)
system.cpu.dcache.overallMissRate::total     0.017372                       # miss rate for overall accesses (Ratio)
system.cpu.dcache.demandAvgMissLatency::cpu.data 78196.996840                       # average overall miss latency in ticks ((Tick/Count))
system.cpu.dcache.demandAvgMissLatency::total 78196.996840                       # average overall miss latency in ticks ((Tick/Count))
system.cpu.dcache.overallAvgMissLatency::cpu.data 75669.939255                       # average overall miss latency ((Tick/Count))
system.cpu.dcache.overallAvgMissLatency::total 75669.939255                       # average overall miss latency ((Tick/Count))
system.cpu.dcache.blockedCycles::no_mshrs        43854                       # number of cycles access was blocked (Cycle)
system.cpu.dcache.blockedCycles::no_targets            0                       # number of cycles access was blocked (Cycle)
system.cpu.dcache.blockedCauses::no_mshrs          205                       # number of times access was blocked (Count)
system.cpu.dcache.blockedCauses::no_targets            0                       # number of times access was blocked (Count)
system.cpu.dcache.avgBlocked::no_mshrs     213.921951                       # average number of cycles each access was blocked ((Cycle/Count))
system.cpu.dcache.avgBlocked::no_targets          nan                       # average number of cycles each access was blocked ((Cycle/Count))
system.cpu.dcache.writebacks::writebacks       807273                       # number of writebacks (Count)
system.cpu.dcache.writebacks::total            807273                       # number of writebacks (Count)
system.cpu.dcache.demandMshrMisses::cpu.data      1092982                       # number of demand (read+write) MSHR misses (Count)
system.cpu.dcache.demandMshrMisses::total      1092982                       # number of demand (read+write) MSHR misses (Count)
system.cpu.dcache.overallMshrMisses::cpu.data      1109374                       # number of overall MSHR misses (Count)
system.cpu.dcache.overallMshrMisses::total      1109374                       # number of overall MSHR misses (Count)
system.cpu.dcache.demandMshrMissLatency::cpu.data  84374928000                       # number of demand (read+write) MSHR miss ticks (Tick)
system.cpu.dcache.demandMshrMissLatency::total  84374928000                       # number of demand (read+write) MSHR miss ticks (Tick)
system.cpu.dcache.overallMshrMissLatency::cpu.data  86144108000                       # number of overall MSHR miss ticks (Tick)
system.cpu.dcache.overallMshrMissLatency::total  86144108000                       # number of overall MSHR miss ticks (Tick)
system.cpu.dcache.demandMshrMissRate::cpu.data     0.016827                       # mshr miss ratio for demand accesses (Ratio)
system.cpu.dcache.demandMshrMissRate::total     0.016827                       # mshr miss ratio for demand accesses (Ratio)
system.cpu.dcache.overallMshrMissRate::cpu.data     0.017062                       # mshr miss ratio for overall accesses (Ratio)
system.cpu.dcache.overallMshrMissRate::total     0.017062                       # mshr miss ratio for overall accesses (Ratio)
system.cpu.dcache.demandAvgMshrMissLatency::cpu.data 77196.996840                       # average overall mshr miss latency ((Tick/Count))
system.cpu.dcache.demandAvgMshrMissLatency::total 77196.996840                       # average overall mshr miss latency ((Tick/Count))
system.cpu.dcache.overallAvgMshrMissLatency::cpu.data 77651.096925                       # average overall mshr miss latency ((Tick/Count))
system.cpu.dcache.overallAvgMshrMissLatency::total 77651.096925                       # average overall mshr miss latency ((Tick/Count))
system.cpu.dcache.replacements                1108862                       # number of replacements (Count)
system.cpu.dcache.LockedRMWReadReq.hits::cpu.data           24                       # number of LockedRMWReadReq hits (Count)
system.cpu.dcache.LockedRMWReadReq.hits::total           24                       # number of LockedRMWReadReq hits (Count)
system.cpu.dcache.LockedRMWReadReq.accesses::cpu.data           24                       # number of LockedRMWReadReq accesses(hits+misses) (Count)
system.cpu.dcache.LockedRMWReadReq.accesses::total           24                       # number of LockedRMWReadReq accesses(hits+misses) (Count)
system.cpu.dcache.LockedRMWReadReq.mshrMissLatency::cpu.data        24000                       # number of LockedRMWReadReq MSHR miss ticks (Tick)
system.cpu.dcache.LockedRMWReadReq.mshrMissLatency::total        24000                       # number of LockedRMWReadReq MSHR miss ticks (Tick)
system.cpu.dcache.LockedRMWReadReq.avgMshrMissLatency::cpu.data          inf                       # average LockedRMWReadReq mshr miss latency ((Tick/Count))
system.cpu.dcache.LockedRMWReadReq.avgMshrMissLatency::total          inf                       # average LockedRMWReadReq mshr miss latency ((Tick/Count))
system.cpu.dcache.LockedRMWWriteReq.hits::cpu.data           24                       # number of LockedRMWWriteReq hits (Count)
system.cpu.dcache.LockedRMWWriteReq.hits::total           24                       # number of LockedRMWWriteReq hits (Count)
system.cpu.dcache.LockedRMWWriteReq.accesses::cpu.data           24                       # number of LockedRMWWriteReq accesses(hits+misses) (Count)
system.cpu.dcache.LockedRMWWriteReq.accesses::total           24                       # number of LockedRMWWriteReq accesses(hits+misses) (Count)
system.cpu.dcache.ReadReq.hits::cpu.data     46833909                       # number of ReadReq hits (Count)
system.cpu.dcache.ReadReq.hits::total        46833909                       # number of ReadReq hits (Count)
system.cpu.dcache.ReadReq.misses::cpu.data       474788                       # number of ReadReq misses (Count)
system.cpu.dcache.ReadReq.misses::total        474788                       # number of ReadReq misses (Count)
system.cpu.dcache.ReadReq.missLatency::cpu.data  32487348000                       # number of ReadReq miss ticks (Tick)
system.cpu.dcache.ReadReq.missLatency::total  32487348000                       # number of ReadReq miss ticks (Tick)
system.cpu.dcache.ReadReq.accesses::cpu.data     47308697                       # number of ReadReq accesses(hits+misses) (Count)
system.cpu.dcache.ReadReq.accesses::total     47308697                       # number of ReadReq accesses(hits+misses) (Count)
system.cpu.dcache.ReadReq.missRate::cpu.data     0.010036                       # miss rate for ReadReq accesses (Ratio)
system.cpu.dcache.ReadReq.missRate::total     0.010036                       # miss rate for ReadReq accesses (Ratio)
system.cpu.dcache.ReadReq.avgMissLatency::cpu.data 68424.955980                       # average ReadReq miss latency ((Tick/Count))
system.cpu.dcache.ReadReq.avgMissLatency::total 68424.955980                       # average ReadReq miss latency ((Tick/Count))
system.cpu.dcache.ReadReq.mshrMisses::cpu.data       474788                       # number of ReadReq MSHR misses (Count)
system.cpu.dcache.ReadReq.mshrMisses::total       474788                       # number of ReadReq MSHR misses (Count)
system.cpu.dcache.ReadReq.mshrMissLatency::cpu.data  32012560000                       # number of ReadReq MSHR miss ticks (Tick)
system.cpu.dcache.ReadReq.mshrMissLatency::total  32012560000                       # number of ReadReq MSHR miss ticks (Tick)
system.cpu.dcache.ReadReq.mshrMissRate::cpu.data     0.010036                       # mshr miss rate for ReadReq accesses (Ratio)
system.cpu.dcache.ReadReq.mshrMissRate::total     0.010036                       # mshr miss rate for ReadReq accesses (Ratio)
system.cpu.dcache.ReadReq.avgMshrMissLatency::cpu.data 67424.955980                       # average ReadReq mshr miss latency ((Tick/Count))
system.cpu.dcache.ReadReq.avgMshrMissLatency::total 67424.955980                       # average ReadReq mshr miss latency ((Tick/Count))
system.cpu.dcache.SoftPFReq.hits::cpu.data        29035                       # number of SoftPFReq hits (Count)
system.cpu.dcache.SoftPFReq.hits::total         29035                       # number of SoftPFReq hits (Count)
system.cpu.dcache.SoftPFReq.misses::cpu.data        36501                       # number of SoftPFReq misses (Count)
system.cpu.dcache.SoftPFReq.misses::total        36501                       # number of SoftPFReq misses (Count)
system.cpu.dcache.SoftPFReq.accesses::cpu.data        65536                       # number of SoftPFReq accesses(hits+misses) (Count)
system.cpu.dcache.SoftPFReq.accesses::total        65536                       # number of SoftPFReq accesses(hits+misses) (Count)
system.cpu.dcache.SoftPFReq.missRate::cpu.data     0.556961                       # miss rate for SoftPFReq accesses (Ratio)
system.cpu.dcache.SoftPFReq.missRate::total     0.556961                       # miss rate for SoftPFReq accesses (Ratio)
system.cpu.dcache.SoftPFReq.mshrMisses::cpu.data        16392                       # number of SoftPFReq MSHR misses (Count)
system.cpu.dcache.SoftPFReq.mshrMisses::total        16392                       # number of SoftPFReq MSHR misses (Count)
system.cpu.dcache.SoftPFReq.mshrMissLatency::cpu.data   1769180000                       # number of SoftPFReq MSHR miss ticks (Tick)
system.cpu.dcache.SoftPFReq.mshrMissLatency::total   1769180000                       # number of SoftPFReq MSHR miss ticks (Tick)
system.cpu.dcache.SoftPFReq.mshrMissRate::cpu.data     0.250122                       # mshr miss rate for SoftPFReq accesses (Ratio)
system.cpu.dcache.SoftPFReq.mshrMissRate::total     0.250122                       # mshr miss rate for SoftPFReq accesses (Ratio)
system.cpu.dcache.SoftPFReq.avgMshrMissLatency::cpu.data 107929.477794                       # average SoftPFReq mshr miss latency ((Tick/Count))
system.cpu.dcache.SoftPFReq.avgMshrMissLatency::total 107929.477794                       # average SoftPFReq mshr miss latency ((Tick/Count))
system.cpu.dcache.WriteReq.hits::cpu.data     17026418                       # number of WriteReq hits (Count)
system.cpu.dcache.WriteReq.hits::total       17026418                       # number of WriteReq hits (Count)
system.cpu.dcache.WriteReq.misses::cpu.data       618194                       # number of WriteReq misses (Count)
system.cpu.dcache.WriteReq.misses::total       618194                       # number of WriteReq misses (Count)
system.cpu.dcache.WriteReq.missLatency::cpu.data  52980562000                       # number of WriteReq miss ticks (Tick)
system.cpu.dcache.WriteReq.missLatency::total  52980562000                       # number of WriteReq miss ticks (Tick)
system.cpu.dcache.WriteReq.accesses::cpu.data     17644612                       # number of WriteReq accesses(hits+misses) (Count)
system.cpu.dcache.WriteReq.accesses::total     17644612                       # number of WriteReq accesses(hits+misses) (Count)
system.cpu.dcache.WriteReq.missRate::cpu.data     0.035036                       # miss rate for WriteReq accesses (Ratio)
system.cpu.dcache.WriteReq.missRate::total     0.035036                       # miss rate for WriteReq accesses (Ratio)
system.cpu.dcache.WriteReq.avgMissLatency::cpu.data 85702.161457                       # average WriteReq miss latency ((Tick/Count))
system.cpu.dcache.WriteReq.avgMissLatency::total 85702.161457                       # average WriteReq miss latency ((Tick/Count))
system.cpu.dcache.WriteReq.mshrMisses::cpu.data       618194                       # number of WriteReq MSHR misses (Count)
system.cpu.dcache.WriteReq.mshrMisses::total       618194                       # number of WriteReq MSHR misses (Count)
system.cpu.dcache.WriteReq.mshrMissLatency::cpu.data  52362368000                       # number of WriteReq MSHR miss ticks (Tick)
system.cpu.dcache.WriteReq.mshrMissLatency::total  52362368000                       # number of WriteReq MSHR miss ticks (Tick)
system.cpu.dcache.WriteReq.mshrMissRate::cpu.data     0.035036                       # mshr miss rate for WriteReq accesses (Ratio)
system.cpu.dcache.WriteReq.mshrMissRate::total     0.035036                       # mshr miss rate for WriteReq accesses (Ratio)
system.cpu.dcache.WriteReq.avgMshrMissLatency::cpu.data 84702.161457                       # average WriteReq mshr miss latency ((Tick/Count))
system.cpu.dcache.WriteReq.avgMshrMissLatency::total 84702.161457                       # average WriteReq mshr miss latency ((Tick/Count))
system.cpu.dcache.power_state.pwrStateResidencyTicks::UNDEFINED 296140928500                       # Cumulative time (in ticks) in various power states (Tick)
system.cpu.dcache.tags.tagsInUse           478.732115                       # Average ticks per tags in use ((Tick/Count))
system.cpu.dcache.tags.totalRefs             64998784                       # Total number of references to valid blocks. (Count)
system.cpu.dcache.tags.sampledRefs            1109374                       # Sample count of references to valid blocks. (Count)
system.cpu.dcache.tags.avgRefs              58.590506                       # Average number of references to valid blocks. ((Count/Count))
system.cpu.dcache.tags.warmupTick              223500                       # The tick when the warmup percentage was hit. (Tick)
system.cpu.dcache.tags.occupancies::cpu.data   478.732115                       # Average occupied blocks per tick, per requestor ((Count/Tick))
system.cpu.dcache.tags.avgOccs::cpu.data     0.935024                       # Average percentage of cache occupancy ((Ratio/Tick))
system.cpu.dcache.tags.avgOccs::total        0.935024                       # Average percentage of cache occupancy ((Ratio/Tick))
system.cpu.dcache.tags.occupanciesTaskId::1024          512                       # Occupied blocks per task id (Count)
system.cpu.dcache.tags.ageTaskId_1024::0           68                       # Occupied blocks per task id, per block age (Count)
system.cpu.dcache.tags.ageTaskId_1024::1          255                       # Occupied blocks per task id, per block age (Count)
system.cpu.dcache.tags.ageTaskId_1024::2          183                       # Occupied blocks per task id, per block age (Count)
system.cpu.dcache.tags.ageTaskId_1024::3            5                       # Occupied blocks per task id, per block age (Count)
system.cpu.dcache.tags.ageTaskId_1024::4            1                       # Occupied blocks per task id, per block age (Count)
system.cpu.dcache.tags.ratioOccsTaskId::1024            1                       # Ratio of occupied blocks and all blocks, per task id (Ratio)
system.cpu.dcache.tags.tagAccesses          131147160                       # Number of tag accesses (Count)
system.cpu.dcache.tags.dataAccesses         131147160                       # Number of data accesses (Count)
system.cpu.dcache.tags.power_state.pwrStateResidencyTicks::UNDEFINED 296140928500                       # Cumulative time (in ticks) in various power states (Tick)
system.cpu.dtb_walker_cache.blockedCycles::no_mshrs            0                       # number of cycles access was blocked (Cycle)
system.cpu.dtb_walker_cache.blockedCycles::no_targets            0                       # number of cycles access was blocked (Cycle)
system.cpu.dtb_walker_cache.blockedCauses::no_mshrs            0                       # number of times access was blocked (Count)
system.cpu.dtb_walker_cache.blockedCauses::no_targets            0                       # number of times access was blocked (Count)
system.cpu.dtb_walker_cache.avgBlocked::no_mshrs          nan                       # average number of cycles each access was blocked ((Cycle/Count))
system.cpu.dtb_walker_cache.avgBlocked::no_targets          nan                       # average number of cycles each access was blocked ((Cycle/Count))
system.cpu.dtb_walker_cache.replacements            0                       # number of replacements (Count)
system.cpu.dtb_walker_cache.power_state.pwrStateResidencyTicks::UNDEFINED 296140928500                       # Cumulative time (in ticks) in various power states (Tick)
system.cpu.dtb_walker_cache.tags.tagsInUse            0                       # Average ticks per tags in use ((Tick/Count))
system.cpu.dtb_walker_cache.tags.totalRefs            0                       # Total number of references to valid blocks. (Count)
system.cpu.dtb_walker_cache.tags.sampledRefs            0                       # Sample count of references to valid blocks. (Count)
system.cpu.dtb_walker_cache.tags.avgRefs          nan                       # Average number of references to valid blocks. ((Count/Count))
system.cpu.dtb_walker_cache.tags.warmupTick            0                       # The tick when the warmup percentage was hit. (Tick)
system.cpu.dtb_walker_cache.tags.tagAccesses            0                       # Number of tag accesses (Count)
system.cpu.dtb_walker_cache.tags.dataAccesses            0                       # Number of data accesses (Count)
system.cpu.dtb_walker_cache.tags.power_state.pwrStateResidencyTicks::UNDEFINED 296140928500                       # Cumulative time (in ticks) in various power states (Tick)
system.cpu.exec_context.thread_0.numInsts    100000000                       # Number of instructions committed (Count)
system.cpu.exec_context.thread_0.numOps     125794040                       # Number of ops (including micro ops) committed (Count)
system.cpu.exec_context.thread_0.numIntAluAccesses    124883128                       # Number of integer alu accesses (Count)
system.cpu.exec_context.thread_0.numFpAluAccesses          835                       # Number of float alu accesses (Count)
system.cpu.exec_context.thread_0.numVecAluAccesses            0                       # Number of vector alu accesses (Count)
system.cpu.exec_context.thread_0.numCallsReturns        69320                       # Number of times a function call or return occured (Count)
system.cpu.exec_context.thread_0.numCondCtrlInsts      3953393                       # Number of instructions that are conditional controls (Count)
system.cpu.exec_context.thread_0.numIntInsts    124883128                       # Number of integer instructions (Count)
system.cpu.exec_context.thread_0.numFpInsts          835                       # Number of float instructions (Count)
system.cpu.exec_context.thread_0.numVecInsts            0                       # Number of vector instructions (Count)
system.cpu.exec_context.thread_0.numIntRegReads    173464292                       # Number of times the integer registers were read (Count)
system.cpu.exec_context.thread_0.numIntRegWrites     98730879                       # Number of times the integer registers were written (Count)
system.cpu.exec_context.thread_0.numFpRegReads         1353                       # Number of times the floating registers were read (Count)
system.cpu.exec_context.thread_0.numFpRegWrites          577                       # Number of times the floating registers were written (Count)
system.cpu.exec_context.thread_0.numVecRegReads            0                       # Number of times the vector registers were read (Count)
system.cpu.exec_context.thread_0.numVecRegWrites            0                       # Number of times the vector registers were written (Count)
system.cpu.exec_context.thread_0.numVecPredRegReads            0                       # Number of times the predicate registers were read (Count)
system.cpu.exec_context.thread_0.numVecPredRegWrites            0                       # Number of times the predicate registers were written (Count)
system.cpu.exec_context.thread_0.numCCRegReads     26575803                       # Number of times the CC registers were read (Count)
system.cpu.exec_context.thread_0.numCCRegWrites     36968403                       # Number of times the CC registers were written (Count)
system.cpu.exec_context.thread_0.numMiscRegReads     75075324                       # Number of times the Misc registers were read (Count)
system.cpu.exec_context.thread_0.numMiscRegWrites            0                       # Number of times the Misc registers were written (Count)
system.cpu.exec_context.thread_0.numMemRefs     65068991                       # Number of memory refs (Count)
system.cpu.exec_context.thread_0.numLoadInsts     47374257                       # Number of load instructions (Count)
system.cpu.exec_context.thread_0.numStoreInsts     17694734                       # Number of store instructions (Count)
system.cpu.exec_context.thread_0.numIdleCycles            0                       # Number of idle cycles (Cycle)
system.cpu.exec_context.thread_0.numBusyCycles    592281857                       # Number of busy cycles (Cycle)
system.cpu.exec_context.thread_0.notIdleFraction            1                       # Percentage of non-idle cycles (Ratio)
system.cpu.exec_context.thread_0.idleFraction            0                       # Percentage of idle cycles (Ratio)
system.cpu.exec_context.thread_0.numBranches      5058690                       # Number of branches fetched (Count)
system.cpu.exec_context.thread_0.statExecutedInstType::No_OpClass      7998245      6.02%      6.02% # Class of executed instruction. (Count)
system.cpu.exec_context.thread_0.statExecutedInstType::IntAlu     59754853     44.94%     50.96% # Class of executed instruction. (Count)
system.cpu.exec_context.thread_0.statExecutedInstType::IntMult       130946      0.10%     51.06% # Class of executed instruction. (Count)
system.cpu.exec_context.thread_0.statExecutedInstType::IntDiv           70      0.00%     51.06% # Class of executed instruction. (Count)
system.cpu.exec_context.thread_0.statExecutedInstType::FloatAdd           21      0.00%     51.06% # Class of executed instruction. (Count)
system.cpu.exec_context.thread_0.statExecutedInstType::FloatCmp            0      0.00%     51.06% # Class of executed instruction. (Count)
system.cpu.exec_context.thread_0.statExecutedInstType::FloatCvt            0      0.00%     51.06% # Class of executed instruction. (Count)
system.cpu.exec_context.thread_0.statExecutedInstType::FloatMult            0      0.00%     51.06% # Class of executed instruction. (Count)
system.cpu.exec_context.thread_0.statExecutedInstType::FloatMultAcc            0      0.00%     51.06% # Class of executed instruction. (Count)
system.cpu.exec_context.thread_0.statExecutedInstType::FloatDiv            0      0.00%     51.06% # Class of executed instruction. (Count)
system.cpu.exec_context.thread_0.statExecutedInstType::FloatMisc            0      0.00%     51.06% # Class of executed instruction. (Count)
system.cpu.exec_context.thread_0.statExecutedInstType::FloatSqrt            0      0.00%     51.06% # Class of executed instruction. (Count)
system.cpu.exec_context.thread_0.statExecutedInstType::SimdAdd            0      0.00%     51.06% # Class of executed instruction. (Count)
system.cpu.exec_context.thread_0.statExecutedInstType::SimdAddAcc            0      0.00%     51.06% # Class of executed instruction. (Count)
system.cpu.exec_context.thread_0.statExecutedInstType::SimdAlu          142      0.00%     51.06% # Class of executed instruction. (Count)
system.cpu.exec_context.thread_0.statExecutedInstType::SimdCmp            0      0.00%     51.06% # Class of executed instruction. (Count)
system.cpu.exec_context.thread_0.statExecutedInstType::SimdCvt          126      0.00%     51.06% # Class of executed instruction. (Count)
system.cpu.exec_context.thread_0.statExecutedInstType::SimdMisc          241      0.00%     51.06% # Class of executed instruction. (Count)
system.cpu.exec_context.thread_0.statExecutedInstType::SimdMult            0      0.00%     51.06% # Class of executed instruction. (Count)
system.cpu.exec_context.thread_0.statExecutedInstType::SimdMultAcc            0      0.00%     51.06% # Class of executed instruction. (Count)
system.cpu.exec_context.thread_0.statExecutedInstType::SimdShift            0      0.00%     51.06% # Class of executed instruction. (Count)
system.cpu.exec_context.thread_0.statExecutedInstType::SimdShiftAcc            0      0.00%     51.06% # Class of executed instruction. (Count)
system.cpu.exec_context.thread_0.statExecutedInstType::SimdDiv            0      0.00%     51.06% # Class of executed instruction. (Count)
system.cpu.exec_context.thread_0.statExecutedInstType::SimdSqrt            0      0.00%     51.06% # Class of executed instruction. (Count)
system.cpu.exec_context.thread_0.statExecutedInstType::SimdFloatAdd            0      0.00%     51.06% # Class of executed instruction. (Count)
system.cpu.exec_context.thread_0.statExecutedInstType::SimdFloatAlu            0      0.00%     51.06% # Class of executed instruction. (Count)
system.cpu.exec_context.thread_0.statExecutedInstType::SimdFloatCmp            0      0.00%     51.06% # Class of executed instruction. (Count)
system.cpu.exec_context.thread_0.statExecutedInstType::SimdFloatCvt            0      0.00%     51.06% # Class of executed instruction. (Count)
system.cpu.exec_context.thread_0.statExecutedInstType::SimdFloatDiv            0      0.00%     51.06% # Class of executed instruction. (Count)
system.cpu.exec_context.thread_0.statExecutedInstType::SimdFloatMisc            0      0.00%     51.06% # Class of executed instruction. (Count)
system.cpu.exec_context.thread_0.statExecutedInstType::SimdFloatMult            0      0.00%     51.06% # Class of executed instruction. (Count)
system.cpu.exec_context.thread_0.statExecutedInstType::SimdFloatMultAcc            0      0.00%     51.06% # Class of executed instruction. (Count)
system.cpu.exec_context.thread_0.statExecutedInstType::SimdFloatSqrt            0      0.00%     51.06% # Class of executed instruction. (Count)
system.cpu.exec_context.thread_0.statExecutedInstType::SimdReduceAdd            0      0.00%     51.06% # Class of executed instruction. (Count)
system.cpu.exec_context.thread_0.statExecutedInstType::SimdReduceAlu            0      0.00%     51.06% # Class of executed instruction. (Count)
system.cpu.exec_context.thread_0.statExecutedInstType::SimdReduceCmp            0      0.00%     51.06% # Class of executed instruction. (Count)
system.cpu.exec_context.thread_0.statExecutedInstType::SimdFloatReduceAdd            0      0.00%     51.06% # Class of executed instruction. (Count)
system.cpu.exec_context.thread_0.statExecutedInstType::SimdFloatReduceCmp            0      0.00%     51.06% # Class of executed instruction. (Count)
system.cpu.exec_context.thread_0.statExecutedInstType::SimdAes            0      0.00%     51.06% # Class of executed instruction. (Count)
system.cpu.exec_context.thread_0.statExecutedInstType::SimdAesMix            0      0.00%     51.06% # Class of executed instruction. (Count)
system.cpu.exec_context.thread_0.statExecutedInstType::SimdSha1Hash            0      0.00%     51.06% # Class of executed instruction. (Count)
system.cpu.exec_context.thread_0.statExecutedInstType::SimdSha1Hash2            0      0.00%     51.06% # Class of executed instruction. (Count)
system.cpu.exec_context.thread_0.statExecutedInstType::SimdSha256Hash            0      0.00%     51.06% # Class of executed instruction. (Count)
system.cpu.exec_context.thread_0.statExecutedInstType::SimdSha256Hash2            0      0.00%     51.06% # Class of executed instruction. (Count)
system.cpu.exec_context.thread_0.statExecutedInstType::SimdShaSigma2            0      0.00%     51.06% # Class of executed instruction. (Count)
system.cpu.exec_context.thread_0.statExecutedInstType::SimdShaSigma3            0      0.00%     51.06% # Class of executed instruction. (Count)
system.cpu.exec_context.thread_0.statExecutedInstType::SimdPredAlu            0      0.00%     51.06% # Class of executed instruction. (Count)
system.cpu.exec_context.thread_0.statExecutedInstType::MemRead     47374175     35.63%     86.69% # Class of executed instruction. (Count)
system.cpu.exec_context.thread_0.statExecutedInstType::MemWrite     17694570     13.31%    100.00% # Class of executed instruction. (Count)
system.cpu.exec_context.thread_0.statExecutedInstType::FloatMemRead           82      0.00%    100.00% # Class of executed instruction. (Count)
system.cpu.exec_context.thread_0.statExecutedInstType::FloatMemWrite          164      0.00%    100.00% # Class of executed instruction. (Count)
system.cpu.exec_context.thread_0.statExecutedInstType::IprAccess            0      0.00%    100.00% # Class of executed instruction. (Count)
system.cpu.exec_context.thread_0.statExecutedInstType::InstPrefetch            0      0.00%    100.00% # Class of executed instruction. (Count)
system.cpu.exec_context.thread_0.statExecutedInstType::total    132953635                       # Class of executed instruction. (Count)
system.cpu.icache.demandHits::cpu.inst      146030433                       # number of demand (read+write) hits (Count)
system.cpu.icache.demandHits::total         146030433                       # number of demand (read+write) hits (Count)
system.cpu.icache.overallHits::cpu.inst     146030433                       # number of overall hits (Count)
system.cpu.icache.overallHits::total        146030433                       # number of overall hits (Count)
system.cpu.icache.demandMisses::cpu.inst          206                       # number of demand (read+write) misses (Count)
system.cpu.icache.demandMisses::total             206                       # number of demand (read+write) misses (Count)
system.cpu.icache.overallMisses::cpu.inst          206                       # number of overall misses (Count)
system.cpu.icache.overallMisses::total            206                       # number of overall misses (Count)
system.cpu.icache.demandMissLatency::cpu.inst     20954500                       # number of demand (read+write) miss ticks (Tick)
system.cpu.icache.demandMissLatency::total     20954500                       # number of demand (read+write) miss ticks (Tick)
system.cpu.icache.overallMissLatency::cpu.inst     20954500                       # number of overall miss ticks (Tick)
system.cpu.icache.overallMissLatency::total     20954500                       # number of overall miss ticks (Tick)
system.cpu.icache.demandAccesses::cpu.inst    146030639                       # number of demand (read+write) accesses (Count)
system.cpu.icache.demandAccesses::total     146030639                       # number of demand (read+write) accesses (Count)
system.cpu.icache.overallAccesses::cpu.inst    146030639                       # number of overall (read+write) accesses (Count)
system.cpu.icache.overallAccesses::total    146030639                       # number of overall (read+write) accesses (Count)
system.cpu.icache.demandMissRate::cpu.inst     0.000001                       # miss rate for demand accesses (Ratio)
system.cpu.icache.demandMissRate::total      0.000001                       # miss rate for demand accesses (Ratio)
system.cpu.icache.overallMissRate::cpu.inst     0.000001                       # miss rate for overall accesses (Ratio)
system.cpu.icache.overallMissRate::total     0.000001                       # miss rate for overall accesses (Ratio)
system.cpu.icache.demandAvgMissLatency::cpu.inst 101720.873786                       # average overall miss latency in ticks ((Tick/Count))
system.cpu.icache.demandAvgMissLatency::total 101720.873786                       # average overall miss latency in ticks ((Tick/Count))
system.cpu.icache.overallAvgMissLatency::cpu.inst 101720.873786                       # average overall miss latency ((Tick/Count))
system.cpu.icache.overallAvgMissLatency::total 101720.873786                       # average overall miss latency ((Tick/Count))
system.cpu.icache.blockedCycles::no_mshrs            0                       # number of cycles access was blocked (Cycle)
system.cpu.icache.blockedCycles::no_targets            0                       # number of cycles access was blocked (Cycle)
system.cpu.icache.blockedCauses::no_mshrs            0                       # number of times access was blocked (Count)
system.cpu.icache.blockedCauses::no_targets            0                       # number of times access was blocked (Count)
system.cpu.icache.avgBlocked::no_mshrs            nan                       # average number of cycles each access was blocked ((Cycle/Count))
system.cpu.icache.avgBlocked::no_targets          nan                       # average number of cycles each access was blocked ((Cycle/Count))
system.cpu.icache.writebacks::writebacks            6                       # number of writebacks (Count)
system.cpu.icache.writebacks::total                 6                       # number of writebacks (Count)
system.cpu.icache.demandMshrMisses::cpu.inst          206                       # number of demand (read+write) MSHR misses (Count)
system.cpu.icache.demandMshrMisses::total          206                       # number of demand (read+write) MSHR misses (Count)
system.cpu.icache.overallMshrMisses::cpu.inst          206                       # number of overall MSHR misses (Count)
system.cpu.icache.overallMshrMisses::total          206                       # number of overall MSHR misses (Count)
system.cpu.icache.demandMshrMissLatency::cpu.inst     20748500                       # number of demand (read+write) MSHR miss ticks (Tick)
system.cpu.icache.demandMshrMissLatency::total     20748500                       # number of demand (read+write) MSHR miss ticks (Tick)
system.cpu.icache.overallMshrMissLatency::cpu.inst     20748500                       # number of overall MSHR miss ticks (Tick)
system.cpu.icache.overallMshrMissLatency::total     20748500                       # number of overall MSHR miss ticks (Tick)
system.cpu.icache.demandMshrMissRate::cpu.inst     0.000001                       # mshr miss ratio for demand accesses (Ratio)
system.cpu.icache.demandMshrMissRate::total     0.000001                       # mshr miss ratio for demand accesses (Ratio)
system.cpu.icache.overallMshrMissRate::cpu.inst     0.000001                       # mshr miss ratio for overall accesses (Ratio)
system.cpu.icache.overallMshrMissRate::total     0.000001                       # mshr miss ratio for overall accesses (Ratio)
system.cpu.icache.demandAvgMshrMissLatency::cpu.inst 100720.873786                       # average overall mshr miss latency ((Tick/Count))
system.cpu.icache.demandAvgMshrMissLatency::total 100720.873786                       # average overall mshr miss latency ((Tick/Count))
system.cpu.icache.overallAvgMshrMissLatency::cpu.inst 100720.873786                       # average overall mshr miss latency ((Tick/Count))
system.cpu.icache.overallAvgMshrMissLatency::total 100720.873786                       # average overall mshr miss latency ((Tick/Count))
system.cpu.icache.replacements                      6                       # number of replacements (Count)
system.cpu.icache.ReadReq.hits::cpu.inst    146030433                       # number of ReadReq hits (Count)
system.cpu.icache.ReadReq.hits::total       146030433                       # number of ReadReq hits (Count)
system.cpu.icache.ReadReq.misses::cpu.inst          206                       # number of ReadReq misses (Count)
system.cpu.icache.ReadReq.misses::total           206                       # number of ReadReq misses (Count)
system.cpu.icache.ReadReq.missLatency::cpu.inst     20954500                       # number of ReadReq miss ticks (Tick)
system.cpu.icache.ReadReq.missLatency::total     20954500                       # number of ReadReq miss ticks (Tick)
system.cpu.icache.ReadReq.accesses::cpu.inst    146030639                       # number of ReadReq accesses(hits+misses) (Count)
system.cpu.icache.ReadReq.accesses::total    146030639                       # number of ReadReq accesses(hits+misses) (Count)
system.cpu.icache.ReadReq.missRate::cpu.inst     0.000001                       # miss rate for ReadReq accesses (Ratio)
system.cpu.icache.ReadReq.missRate::total     0.000001                       # miss rate for ReadReq accesses (Ratio)
system.cpu.icache.ReadReq.avgMissLatency::cpu.inst 101720.873786                       # average ReadReq miss latency ((Tick/Count))
system.cpu.icache.ReadReq.avgMissLatency::total 101720.873786                       # average ReadReq miss latency ((Tick/Count))
system.cpu.icache.ReadReq.mshrMisses::cpu.inst          206                       # number of ReadReq MSHR misses (Count)
system.cpu.icache.ReadReq.mshrMisses::total          206                       # number of ReadReq MSHR misses (Count)
system.cpu.icache.ReadReq.mshrMissLatency::cpu.inst     20748500                       # number of ReadReq MSHR miss ticks (Tick)
system.cpu.icache.ReadReq.mshrMissLatency::total     20748500                       # number of ReadReq MSHR miss ticks (Tick)
system.cpu.icache.ReadReq.mshrMissRate::cpu.inst     0.000001                       # mshr miss rate for ReadReq accesses (Ratio)
system.cpu.icache.ReadReq.mshrMissRate::total     0.000001                       # mshr miss rate for ReadReq accesses (Ratio)
system.cpu.icache.ReadReq.avgMshrMissLatency::cpu.inst 100720.873786                       # average ReadReq mshr miss latency ((Tick/Count))
system.cpu.icache.ReadReq.avgMshrMissLatency::total 100720.873786                       # average ReadReq mshr miss latency ((Tick/Count))
system.cpu.icache.power_state.pwrStateResidencyTicks::UNDEFINED 296140928500                       # Cumulative time (in ticks) in various power states (Tick)
system.cpu.icache.tags.tagsInUse           174.128744                       # Average ticks per tags in use ((Tick/Count))
system.cpu.icache.tags.totalRefs            146030639                       # Total number of references to valid blocks. (Count)
system.cpu.icache.tags.sampledRefs                206                       # Sample count of references to valid blocks. (Count)
system.cpu.icache.tags.avgRefs           708886.597087                       # Average number of references to valid blocks. ((Count/Count))
system.cpu.icache.tags.warmupTick              102500                       # The tick when the warmup percentage was hit. (Tick)
system.cpu.icache.tags.occupancies::cpu.inst   174.128744                       # Average occupied blocks per tick, per requestor ((Count/Tick))
system.cpu.icache.tags.avgOccs::cpu.inst     0.340095                       # Average percentage of cache occupancy ((Ratio/Tick))
system.cpu.icache.tags.avgOccs::total        0.340095                       # Average percentage of cache occupancy ((Ratio/Tick))
system.cpu.icache.tags.occupanciesTaskId::1024          200                       # Occupied blocks per task id (Count)
system.cpu.icache.tags.ageTaskId_1024::4          200                       # Occupied blocks per task id, per block age (Count)
system.cpu.icache.tags.ratioOccsTaskId::1024     0.390625                       # Ratio of occupied blocks and all blocks, per task id (Ratio)
system.cpu.icache.tags.tagAccesses          292061484                       # Number of tag accesses (Count)
system.cpu.icache.tags.dataAccesses         292061484                       # Number of data accesses (Count)
system.cpu.icache.tags.power_state.pwrStateResidencyTicks::UNDEFINED 296140928500                       # Cumulative time (in ticks) in various power states (Tick)
system.cpu.interrupts.clk_domain.clock           8000                       # Clock period in ticks (Tick)
system.cpu.itb_walker_cache.blockedCycles::no_mshrs            0                       # number of cycles access was blocked (Cycle)
system.cpu.itb_walker_cache.blockedCycles::no_targets            0                       # number of cycles access was blocked (Cycle)
system.cpu.itb_walker_cache.blockedCauses::no_mshrs            0                       # number of times access was blocked (Count)
system.cpu.itb_walker_cache.blockedCauses::no_targets            0                       # number of times access was blocked (Count)
system.cpu.itb_walker_cache.avgBlocked::no_mshrs          nan                       # average number of cycles each access was blocked ((Cycle/Count))
system.cpu.itb_walker_cache.avgBlocked::no_targets          nan                       # average number of cycles each access was blocked ((Cycle/Count))
system.cpu.itb_walker_cache.replacements            0                       # number of replacements (Count)
system.cpu.itb_walker_cache.power_state.pwrStateResidencyTicks::UNDEFINED 296140928500                       # Cumulative time (in ticks) in various power states (Tick)
system.cpu.itb_walker_cache.tags.tagsInUse            0                       # Average ticks per tags in use ((Tick/Count))
system.cpu.itb_walker_cache.tags.totalRefs            0                       # Total number of references to valid blocks. (Count)
system.cpu.itb_walker_cache.tags.sampledRefs            0                       # Sample count of references to valid blocks. (Count)
system.cpu.itb_walker_cache.tags.avgRefs          nan                       # Average number of references to valid blocks. ((Count/Count))
system.cpu.itb_walker_cache.tags.warmupTick            0                       # The tick when the warmup percentage was hit. (Tick)
system.cpu.itb_walker_cache.tags.tagAccesses            0                       # Number of tag accesses (Count)
system.cpu.itb_walker_cache.tags.dataAccesses            0                       # Number of data accesses (Count)
system.cpu.itb_walker_cache.tags.power_state.pwrStateResidencyTicks::UNDEFINED 296140928500                       # Cumulative time (in ticks) in various power states (Tick)
system.cpu.mmu.dtb.rdAccesses                47374257                       # TLB accesses on read requests (Count)
system.cpu.mmu.dtb.wrAccesses                17694734                       # TLB accesses on write requests (Count)
system.cpu.mmu.dtb.rdMisses                    154484                       # TLB misses on read requests (Count)
system.cpu.mmu.dtb.wrMisses                    442816                       # TLB misses on write requests (Count)
system.cpu.mmu.dtb.walker.power_state.pwrStateResidencyTicks::UNDEFINED 296140928500                       # Cumulative time (in ticks) in various power states (Tick)
system.cpu.mmu.itb.rdAccesses                       0                       # TLB accesses on read requests (Count)
system.cpu.mmu.itb.wrAccesses               146030639                       # TLB accesses on write requests (Count)
system.cpu.mmu.itb.rdMisses                         0                       # TLB misses on read requests (Count)
system.cpu.mmu.itb.wrMisses                        48                       # TLB misses on write requests (Count)
system.cpu.mmu.itb.walker.power_state.pwrStateResidencyTicks::UNDEFINED 296140928500                       # Cumulative time (in ticks) in various power states (Tick)
system.cpu.power_state.pwrStateResidencyTicks::ON 296140928500                       # Cumulative time (in ticks) in various power states (Tick)
system.cpu.thread_0.numInsts                        0                       # Number of Instructions committed (Count)
system.cpu.thread_0.numOps                          0                       # Number of Ops committed (Count)
system.cpu.thread_0.numMemRefs                      0                       # Number of Memory References (Count)
system.cpu.workload.numSyscalls                    89                       # Number of system calls (Count)
system.cpu_clk_domain.clock                       500                       # Clock period in ticks (Tick)
system.cpu_voltage_domain.voltage                   1                       # Voltage in Volts (Volt)
system.l2.demandHits::cpu.inst                      1                       # number of demand (read+write) hits (Count)
system.l2.demandHits::cpu.data                 318939                       # number of demand (read+write) hits (Count)
system.l2.demandHits::total                    318940                       # number of demand (read+write) hits (Count)
system.l2.overallHits::cpu.inst                     1                       # number of overall hits (Count)
system.l2.overallHits::cpu.data                318939                       # number of overall hits (Count)
system.l2.overallHits::total                   318940                       # number of overall hits (Count)
system.l2.demandMisses::cpu.inst                  205                       # number of demand (read+write) misses (Count)
system.l2.demandMisses::cpu.data               790435                       # number of demand (read+write) misses (Count)
system.l2.demandMisses::total                  790640                       # number of demand (read+write) misses (Count)
system.l2.overallMisses::cpu.inst                 205                       # number of overall misses (Count)
system.l2.overallMisses::cpu.data              790435                       # number of overall misses (Count)
system.l2.overallMisses::total                 790640                       # number of overall misses (Count)
system.l2.demandMissLatency::cpu.inst        20426500                       # number of demand (read+write) miss ticks (Tick)
system.l2.demandMissLatency::cpu.data     81131060000                       # number of demand (read+write) miss ticks (Tick)
system.l2.demandMissLatency::total        81151486500                       # number of demand (read+write) miss ticks (Tick)
system.l2.overallMissLatency::cpu.inst       20426500                       # number of overall miss ticks (Tick)
system.l2.overallMissLatency::cpu.data    81131060000                       # number of overall miss ticks (Tick)
system.l2.overallMissLatency::total       81151486500                       # number of overall miss ticks (Tick)
system.l2.demandAccesses::cpu.inst                206                       # number of demand (read+write) accesses (Count)
system.l2.demandAccesses::cpu.data            1109374                       # number of demand (read+write) accesses (Count)
system.l2.demandAccesses::total               1109580                       # number of demand (read+write) accesses (Count)
system.l2.overallAccesses::cpu.inst               206                       # number of overall (read+write) accesses (Count)
system.l2.overallAccesses::cpu.data           1109374                       # number of overall (read+write) accesses (Count)
system.l2.overallAccesses::total              1109580                       # number of overall (read+write) accesses (Count)
system.l2.demandMissRate::cpu.inst           0.995146                       # miss rate for demand accesses (Ratio)
system.l2.demandMissRate::cpu.data           0.712505                       # miss rate for demand accesses (Ratio)
system.l2.demandMissRate::total              0.712558                       # miss rate for demand accesses (Ratio)
system.l2.overallMissRate::cpu.inst          0.995146                       # miss rate for overall accesses (Ratio)
system.l2.overallMissRate::cpu.data          0.712505                       # miss rate for overall accesses (Ratio)
system.l2.overallMissRate::total             0.712558                       # miss rate for overall accesses (Ratio)
system.l2.demandAvgMissLatency::cpu.inst 99641.463415                       # average overall miss latency in ticks ((Tick/Count))
system.l2.demandAvgMissLatency::cpu.data 102641.026776                       # average overall miss latency in ticks ((Tick/Count))
system.l2.demandAvgMissLatency::total    102640.249039                       # average overall miss latency in ticks ((Tick/Count))
system.l2.overallAvgMissLatency::cpu.inst 99641.463415                       # average overall miss latency ((Tick/Count))
system.l2.overallAvgMissLatency::cpu.data 102641.026776                       # average overall miss latency ((Tick/Count))
system.l2.overallAvgMissLatency::total   102640.249039                       # average overall miss latency ((Tick/Count))
system.l2.blockedCycles::no_mshrs                   0                       # number of cycles access was blocked (Cycle)
system.l2.blockedCycles::no_targets                 0                       # number of cycles access was blocked (Cycle)
system.l2.blockedCauses::no_mshrs                   0                       # number of times access was blocked (Count)
system.l2.blockedCauses::no_targets                 0                       # number of times access was blocked (Count)
system.l2.avgBlocked::no_mshrs                    nan                       # average number of cycles each access was blocked ((Cycle/Count))
system.l2.avgBlocked::no_targets                  nan                       # average number of cycles each access was blocked ((Cycle/Count))
system.l2.writebacks::writebacks               485063                       # number of writebacks (Count)
system.l2.writebacks::total                    485063                       # number of writebacks (Count)
system.l2.demandMshrMisses::cpu.inst              205                       # number of demand (read+write) MSHR misses (Count)
system.l2.demandMshrMisses::cpu.data           790435                       # number of demand (read+write) MSHR misses (Count)
system.l2.demandMshrMisses::total              790640                       # number of demand (read+write) MSHR misses (Count)
system.l2.overallMshrMisses::cpu.inst             205                       # number of overall MSHR misses (Count)
system.l2.overallMshrMisses::cpu.data          790435                       # number of overall MSHR misses (Count)
system.l2.overallMshrMisses::total             790640                       # number of overall MSHR misses (Count)
system.l2.demandMshrMissLatency::cpu.inst     18376500                       # number of demand (read+write) MSHR miss ticks (Tick)
system.l2.demandMshrMissLatency::cpu.data  73226710000                       # number of demand (read+write) MSHR miss ticks (Tick)
system.l2.demandMshrMissLatency::total    73245086500                       # number of demand (read+write) MSHR miss ticks (Tick)
system.l2.overallMshrMissLatency::cpu.inst     18376500                       # number of overall MSHR miss ticks (Tick)
system.l2.overallMshrMissLatency::cpu.data  73226710000                       # number of overall MSHR miss ticks (Tick)
system.l2.overallMshrMissLatency::total   73245086500                       # number of overall MSHR miss ticks (Tick)
system.l2.demandMshrMissRate::cpu.inst       0.995146                       # mshr miss ratio for demand accesses (Ratio)
system.l2.demandMshrMissRate::cpu.data       0.712505                       # mshr miss ratio for demand accesses (Ratio)
system.l2.demandMshrMissRate::total          0.712558                       # mshr miss ratio for demand accesses (Ratio)
system.l2.overallMshrMissRate::cpu.inst      0.995146                       # mshr miss ratio for overall accesses (Ratio)
system.l2.overallMshrMissRate::cpu.data      0.712505                       # mshr miss ratio for overall accesses (Ratio)
system.l2.overallMshrMissRate::total         0.712558                       # mshr miss ratio for overall accesses (Ratio)
system.l2.demandAvgMshrMissLatency::cpu.inst 89641.463415                       # average overall mshr miss latency ((Tick/Count))
system.l2.demandAvgMshrMissLatency::cpu.data 92641.026776                       # average overall mshr miss latency ((Tick/Count))
system.l2.demandAvgMshrMissLatency::total 92640.249039                       # average overall mshr miss latency ((Tick/Count))
system.l2.overallAvgMshrMissLatency::cpu.inst 89641.463415                       # average overall mshr miss latency ((Tick/Count))
system.l2.overallAvgMshrMissLatency::cpu.data 92641.026776                       # average overall mshr miss latency ((Tick/Count))
system.l2.overallAvgMshrMissLatency::total 92640.249039                       # average overall mshr miss latency ((Tick/Count))
system.l2.replacements                         819644                       # number of replacements (Count)
system.l2.CleanEvict.mshrMisses::writebacks          342                       # number of CleanEvict MSHR misses (Count)
system.l2.CleanEvict.mshrMisses::total            342                       # number of CleanEvict MSHR misses (Count)
system.l2.CleanEvict.mshrMissRate::writebacks          inf                       # mshr miss rate for CleanEvict accesses (Ratio)
system.l2.CleanEvict.mshrMissRate::total          inf                       # mshr miss rate for CleanEvict accesses (Ratio)
system.l2.ReadCleanReq.hits::cpu.inst               1                       # number of ReadCleanReq hits (Count)
system.l2.ReadCleanReq.hits::total                  1                       # number of ReadCleanReq hits (Count)
system.l2.ReadCleanReq.misses::cpu.inst           205                       # number of ReadCleanReq misses (Count)
system.l2.ReadCleanReq.misses::total              205                       # number of ReadCleanReq misses (Count)
system.l2.ReadCleanReq.missLatency::cpu.inst     20426500                       # number of ReadCleanReq miss ticks (Tick)
system.l2.ReadCleanReq.missLatency::total     20426500                       # number of ReadCleanReq miss ticks (Tick)
system.l2.ReadCleanReq.accesses::cpu.inst          206                       # number of ReadCleanReq accesses(hits+misses) (Count)
system.l2.ReadCleanReq.accesses::total            206                       # number of ReadCleanReq accesses(hits+misses) (Count)
system.l2.ReadCleanReq.missRate::cpu.inst     0.995146                       # miss rate for ReadCleanReq accesses (Ratio)
system.l2.ReadCleanReq.missRate::total       0.995146                       # miss rate for ReadCleanReq accesses (Ratio)
system.l2.ReadCleanReq.avgMissLatency::cpu.inst 99641.463415                       # average ReadCleanReq miss latency ((Tick/Count))
system.l2.ReadCleanReq.avgMissLatency::total 99641.463415                       # average ReadCleanReq miss latency ((Tick/Count))
system.l2.ReadCleanReq.mshrMisses::cpu.inst          205                       # number of ReadCleanReq MSHR misses (Count)
system.l2.ReadCleanReq.mshrMisses::total          205                       # number of ReadCleanReq MSHR misses (Count)
system.l2.ReadCleanReq.mshrMissLatency::cpu.inst     18376500                       # number of ReadCleanReq MSHR miss ticks (Tick)
system.l2.ReadCleanReq.mshrMissLatency::total     18376500                       # number of ReadCleanReq MSHR miss ticks (Tick)
system.l2.ReadCleanReq.mshrMissRate::cpu.inst     0.995146                       # mshr miss rate for ReadCleanReq accesses (Ratio)
system.l2.ReadCleanReq.mshrMissRate::total     0.995146                       # mshr miss rate for ReadCleanReq accesses (Ratio)
system.l2.ReadCleanReq.avgMshrMissLatency::cpu.inst 89641.463415                       # average ReadCleanReq mshr miss latency ((Tick/Count))
system.l2.ReadCleanReq.avgMshrMissLatency::total 89641.463415                       # average ReadCleanReq mshr miss latency ((Tick/Count))
system.l2.ReadExReq.hits::cpu.data             152302                       # number of ReadExReq hits (Count)
system.l2.ReadExReq.hits::total                152302                       # number of ReadExReq hits (Count)
system.l2.ReadExReq.misses::cpu.data           465892                       # number of ReadExReq misses (Count)
system.l2.ReadExReq.misses::total              465892                       # number of ReadExReq misses (Count)
system.l2.ReadExReq.missLatency::cpu.data  49835857500                       # number of ReadExReq miss ticks (Tick)
system.l2.ReadExReq.missLatency::total    49835857500                       # number of ReadExReq miss ticks (Tick)
system.l2.ReadExReq.accesses::cpu.data         618194                       # number of ReadExReq accesses(hits+misses) (Count)
system.l2.ReadExReq.accesses::total            618194                       # number of ReadExReq accesses(hits+misses) (Count)
system.l2.ReadExReq.missRate::cpu.data       0.753634                       # miss rate for ReadExReq accesses (Ratio)
system.l2.ReadExReq.missRate::total          0.753634                       # miss rate for ReadExReq accesses (Ratio)
system.l2.ReadExReq.avgMissLatency::cpu.data 106968.691242                       # average ReadExReq miss latency ((Tick/Count))
system.l2.ReadExReq.avgMissLatency::total 106968.691242                       # average ReadExReq miss latency ((Tick/Count))
system.l2.ReadExReq.mshrMisses::cpu.data       465892                       # number of ReadExReq MSHR misses (Count)
system.l2.ReadExReq.mshrMisses::total          465892                       # number of ReadExReq MSHR misses (Count)
system.l2.ReadExReq.mshrMissLatency::cpu.data  45176937500                       # number of ReadExReq MSHR miss ticks (Tick)
system.l2.ReadExReq.mshrMissLatency::total  45176937500                       # number of ReadExReq MSHR miss ticks (Tick)
system.l2.ReadExReq.mshrMissRate::cpu.data     0.753634                       # mshr miss rate for ReadExReq accesses (Ratio)
system.l2.ReadExReq.mshrMissRate::total      0.753634                       # mshr miss rate for ReadExReq accesses (Ratio)
system.l2.ReadExReq.avgMshrMissLatency::cpu.data 96968.691242                       # average ReadExReq mshr miss latency ((Tick/Count))
system.l2.ReadExReq.avgMshrMissLatency::total 96968.691242                       # average ReadExReq mshr miss latency ((Tick/Count))
system.l2.ReadSharedReq.hits::cpu.data         166637                       # number of ReadSharedReq hits (Count)
system.l2.ReadSharedReq.hits::total            166637                       # number of ReadSharedReq hits (Count)
system.l2.ReadSharedReq.misses::cpu.data       324543                       # number of ReadSharedReq misses (Count)
system.l2.ReadSharedReq.misses::total          324543                       # number of ReadSharedReq misses (Count)
system.l2.ReadSharedReq.missLatency::cpu.data  31295202500                       # number of ReadSharedReq miss ticks (Tick)
system.l2.ReadSharedReq.missLatency::total  31295202500                       # number of ReadSharedReq miss ticks (Tick)
system.l2.ReadSharedReq.accesses::cpu.data       491180                       # number of ReadSharedReq accesses(hits+misses) (Count)
system.l2.ReadSharedReq.accesses::total        491180                       # number of ReadSharedReq accesses(hits+misses) (Count)
system.l2.ReadSharedReq.missRate::cpu.data     0.660741                       # miss rate for ReadSharedReq accesses (Ratio)
system.l2.ReadSharedReq.missRate::total      0.660741                       # miss rate for ReadSharedReq accesses (Ratio)
system.l2.ReadSharedReq.avgMissLatency::cpu.data 96428.524109                       # average ReadSharedReq miss latency ((Tick/Count))
system.l2.ReadSharedReq.avgMissLatency::total 96428.524109                       # average ReadSharedReq miss latency ((Tick/Count))
system.l2.ReadSharedReq.mshrMisses::cpu.data       324543                       # number of ReadSharedReq MSHR misses (Count)
system.l2.ReadSharedReq.mshrMisses::total       324543                       # number of ReadSharedReq MSHR misses (Count)
system.l2.ReadSharedReq.mshrMissLatency::cpu.data  28049772500                       # number of ReadSharedReq MSHR miss ticks (Tick)
system.l2.ReadSharedReq.mshrMissLatency::total  28049772500                       # number of ReadSharedReq MSHR miss ticks (Tick)
system.l2.ReadSharedReq.mshrMissRate::cpu.data     0.660741                       # mshr miss rate for ReadSharedReq accesses (Ratio)
system.l2.ReadSharedReq.mshrMissRate::total     0.660741                       # mshr miss rate for ReadSharedReq accesses (Ratio)
system.l2.ReadSharedReq.avgMshrMissLatency::cpu.data 86428.524109                       # average ReadSharedReq mshr miss latency ((Tick/Count))
system.l2.ReadSharedReq.avgMshrMissLatency::total 86428.524109                       # average ReadSharedReq mshr miss latency ((Tick/Count))
system.l2.WritebackClean.hits::writebacks            6                       # number of WritebackClean hits (Count)
system.l2.WritebackClean.hits::total                6                       # number of WritebackClean hits (Count)
system.l2.WritebackClean.accesses::writebacks            6                       # number of WritebackClean accesses(hits+misses) (Count)
system.l2.WritebackClean.accesses::total            6                       # number of WritebackClean accesses(hits+misses) (Count)
system.l2.WritebackDirty.hits::writebacks       807273                       # number of WritebackDirty hits (Count)
system.l2.WritebackDirty.hits::total           807273                       # number of WritebackDirty hits (Count)
system.l2.WritebackDirty.accesses::writebacks       807273                       # number of WritebackDirty accesses(hits+misses) (Count)
system.l2.WritebackDirty.accesses::total       807273                       # number of WritebackDirty accesses(hits+misses) (Count)
system.l2.power_state.pwrStateResidencyTicks::UNDEFINED 296140928500                       # Cumulative time (in ticks) in various power states (Tick)
system.l2.tags.tagsInUse                  3802.730593                       # Average ticks per tags in use ((Tick/Count))
system.l2.tags.totalRefs                      2218105                       # Total number of references to valid blocks. (Count)
system.l2.tags.sampledRefs                     823740                       # Sample count of references to valid blocks. (Count)
system.l2.tags.avgRefs                       2.692725                       # Average number of references to valid blocks. ((Count/Count))
system.l2.tags.warmupTick                       92000                       # The tick when the warmup percentage was hit. (Tick)
system.l2.tags.occupancies::writebacks      78.643212                       # Average occupied blocks per tick, per requestor ((Count/Tick))
system.l2.tags.occupancies::cpu.inst        11.259335                       # Average occupied blocks per tick, per requestor ((Count/Tick))
system.l2.tags.occupancies::cpu.data      3712.828046                       # Average occupied blocks per tick, per requestor ((Count/Tick))
system.l2.tags.avgOccs::writebacks           0.019200                       # Average percentage of cache occupancy ((Ratio/Tick))
system.l2.tags.avgOccs::cpu.inst             0.002749                       # Average percentage of cache occupancy ((Ratio/Tick))
system.l2.tags.avgOccs::cpu.data             0.906452                       # Average percentage of cache occupancy ((Ratio/Tick))
system.l2.tags.avgOccs::total                0.928401                       # Average percentage of cache occupancy ((Ratio/Tick))
system.l2.tags.occupanciesTaskId::1024           4096                       # Occupied blocks per task id (Count)
system.l2.tags.ageTaskId_1024::0                   17                       # Occupied blocks per task id, per block age (Count)
system.l2.tags.ageTaskId_1024::1                   92                       # Occupied blocks per task id, per block age (Count)
system.l2.tags.ageTaskId_1024::2                  435                       # Occupied blocks per task id, per block age (Count)
system.l2.tags.ageTaskId_1024::3                 1640                       # Occupied blocks per task id, per block age (Count)
system.l2.tags.ageTaskId_1024::4                 1912                       # Occupied blocks per task id, per block age (Count)
system.l2.tags.ratioOccsTaskId::1024                1                       # Ratio of occupied blocks and all blocks, per task id (Ratio)
system.l2.tags.tagAccesses                    3042187                       # Number of tag accesses (Count)
system.l2.tags.dataAccesses                   3042187                       # Number of data accesses (Count)
system.l2.tags.power_state.pwrStateResidencyTicks::UNDEFINED 296140928500                       # Cumulative time (in ticks) in various power states (Tick)
system.mem_ctrls.avgPriority_writebacks::samples   1940175.00                       # Average QoS priority value for accepted requests (Count)
system.mem_ctrls.avgPriority_cpu.inst::samples       820.00                       # Average QoS priority value for accepted requests (Count)
system.mem_ctrls.avgPriority_cpu.data::samples   3155983.00                       # Average QoS priority value for accepted requests (Count)
system.mem_ctrls.priorityMinLatency      0.000000018750                       # per QoS priority minimum request to response latency (Second)
system.mem_ctrls.priorityMaxLatency      0.010282624500                       # per QoS priority maximum request to response latency (Second)
system.mem_ctrls.numReadWriteTurnArounds       109045                       # Number of turnarounds from READ to WRITE (Count)
system.mem_ctrls.numWriteReadTurnArounds       109045                       # Number of turnarounds from WRITE to READ (Count)
system.mem_ctrls.numStayReadState             4426195                       # Number of times bus staying in READ state (Count)
system.mem_ctrls.numStayWriteState            1837120                       # Number of times bus staying in WRITE state (Count)
system.mem_ctrls.readReqs                      790640                       # Number of read requests accepted (Count)
system.mem_ctrls.writeReqs                     485063                       # Number of write requests accepted (Count)
system.mem_ctrls.readBursts                   3162560                       # Number of controller read bursts, including those serviced by the write queue (Count)
system.mem_ctrls.writeBursts                  1940252                       # Number of controller write bursts, including those merged in the write queue (Count)
system.mem_ctrls.servicedByWrQ                   5757                       # Number of controller read bursts serviced by the write queue (Count)
system.mem_ctrls.mergedWrBursts                    77                       # Number of controller write bursts merged with an existing one (Count)
system.mem_ctrls.neitherReadNorWriteReqs            0                       # Number of requests that are neither read nor write (Count)
system.mem_ctrls.avgRdQLen                       4.00                       # Average read queue length when enqueuing ((Count/Tick))
system.mem_ctrls.avgWrQLen                      27.66                       # Average write queue length when enqueuing ((Count/Tick))
system.mem_ctrls.numRdRetry                         0                       # Number of times read queue was full causing retry (Count)
system.mem_ctrls.numWrRetry                         0                       # Number of times write queue was full causing retry (Count)
system.mem_ctrls.readPktSize::0                     0                       # Read request sizes (log2) (Count)
system.mem_ctrls.readPktSize::1                     0                       # Read request sizes (log2) (Count)
system.mem_ctrls.readPktSize::2                     0                       # Read request sizes (log2) (Count)
system.mem_ctrls.readPktSize::3                     0                       # Read request sizes (log2) (Count)
system.mem_ctrls.readPktSize::4                     0                       # Read request sizes (log2) (Count)
system.mem_ctrls.readPktSize::5                     0                       # Read request sizes (log2) (Count)
system.mem_ctrls.readPktSize::6               3162560                       # Read request sizes (log2) (Count)
system.mem_ctrls.readPktSize::7                     0                       # Read request sizes (log2) (Count)
system.mem_ctrls.readPktSize::8                     0                       # Read request sizes (log2) (Count)
system.mem_ctrls.writePktSize::0                    0                       # Write request sizes (log2) (Count)
system.mem_ctrls.writePktSize::1                    0                       # Write request sizes (log2) (Count)
system.mem_ctrls.writePktSize::2                    0                       # Write request sizes (log2) (Count)
system.mem_ctrls.writePktSize::3                    0                       # Write request sizes (log2) (Count)
system.mem_ctrls.writePktSize::4                    0                       # Write request sizes (log2) (Count)
system.mem_ctrls.writePktSize::5                    0                       # Write request sizes (log2) (Count)
system.mem_ctrls.writePktSize::6              1940252                       # Write request sizes (log2) (Count)
system.mem_ctrls.writePktSize::7                    0                       # Write request sizes (log2) (Count)
system.mem_ctrls.writePktSize::8                    0                       # Write request sizes (log2) (Count)
system.mem_ctrls.rdQLenPdf::0                  786952                       # What read queue length does an incoming req see (Count)
system.mem_ctrls.rdQLenPdf::1                  787149                       # What read queue length does an incoming req see (Count)
system.mem_ctrls.rdQLenPdf::2                  787181                       # What read queue length does an incoming req see (Count)
system.mem_ctrls.rdQLenPdf::3                  787223                       # What read queue length does an incoming req see (Count)
system.mem_ctrls.rdQLenPdf::4                    2024                       # What read queue length does an incoming req see (Count)
system.mem_ctrls.rdQLenPdf::5                    1606                       # What read queue length does an incoming req see (Count)
system.mem_ctrls.rdQLenPdf::6                    1577                       # What read queue length does an incoming req see (Count)
system.mem_ctrls.rdQLenPdf::7                    1544                       # What read queue length does an incoming req see (Count)
system.mem_ctrls.rdQLenPdf::8                     224                       # What read queue length does an incoming req see (Count)
system.mem_ctrls.rdQLenPdf::9                     232                       # What read queue length does an incoming req see (Count)
system.mem_ctrls.rdQLenPdf::10                    228                       # What read queue length does an incoming req see (Count)
system.mem_ctrls.rdQLenPdf::11                    218                       # What read queue length does an incoming req see (Count)
system.mem_ctrls.rdQLenPdf::12                    172                       # What read queue length does an incoming req see (Count)
system.mem_ctrls.rdQLenPdf::13                    159                       # What read queue length does an incoming req see (Count)
system.mem_ctrls.rdQLenPdf::14                    157                       # What read queue length does an incoming req see (Count)
system.mem_ctrls.rdQLenPdf::15                    157                       # What read queue length does an incoming req see (Count)
system.mem_ctrls.rdQLenPdf::16                      0                       # What read queue length does an incoming req see (Count)
system.mem_ctrls.rdQLenPdf::17                      0                       # What read queue length does an incoming req see (Count)
system.mem_ctrls.rdQLenPdf::18                      0                       # What read queue length does an incoming req see (Count)
system.mem_ctrls.rdQLenPdf::19                      0                       # What read queue length does an incoming req see (Count)
system.mem_ctrls.rdQLenPdf::20                      0                       # What read queue length does an incoming req see (Count)
system.mem_ctrls.rdQLenPdf::21                      0                       # What read queue length does an incoming req see (Count)
system.mem_ctrls.rdQLenPdf::22                      0                       # What read queue length does an incoming req see (Count)
system.mem_ctrls.rdQLenPdf::23                      0                       # What read queue length does an incoming req see (Count)
system.mem_ctrls.rdQLenPdf::24                      0                       # What read queue length does an incoming req see (Count)
system.mem_ctrls.rdQLenPdf::25                      0                       # What read queue length does an incoming req see (Count)
system.mem_ctrls.rdQLenPdf::26                      0                       # What read queue length does an incoming req see (Count)
system.mem_ctrls.rdQLenPdf::27                      0                       # What read queue length does an incoming req see (Count)
system.mem_ctrls.rdQLenPdf::28                      0                       # What read queue length does an incoming req see (Count)
system.mem_ctrls.rdQLenPdf::29                      0                       # What read queue length does an incoming req see (Count)
system.mem_ctrls.rdQLenPdf::30                      0                       # What read queue length does an incoming req see (Count)
system.mem_ctrls.rdQLenPdf::31                      0                       # What read queue length does an incoming req see (Count)
system.mem_ctrls.wrQLenPdf::0                       1                       # What write queue length does an incoming req see (Count)
system.mem_ctrls.wrQLenPdf::1                       1                       # What write queue length does an incoming req see (Count)
system.mem_ctrls.wrQLenPdf::2                       1                       # What write queue length does an incoming req see (Count)
system.mem_ctrls.wrQLenPdf::3                       1                       # What write queue length does an incoming req see (Count)
system.mem_ctrls.wrQLenPdf::4                       1                       # What write queue length does an incoming req see (Count)
system.mem_ctrls.wrQLenPdf::5                       1                       # What write queue length does an incoming req see (Count)
system.mem_ctrls.wrQLenPdf::6                       1                       # What write queue length does an incoming req see (Count)
system.mem_ctrls.wrQLenPdf::7                       1                       # What write queue length does an incoming req see (Count)
system.mem_ctrls.wrQLenPdf::8                       1                       # What write queue length does an incoming req see (Count)
system.mem_ctrls.wrQLenPdf::9                       1                       # What write queue length does an incoming req see (Count)
system.mem_ctrls.wrQLenPdf::10                      1                       # What write queue length does an incoming req see (Count)
system.mem_ctrls.wrQLenPdf::11                      1                       # What write queue length does an incoming req see (Count)
system.mem_ctrls.wrQLenPdf::12                      1                       # What write queue length does an incoming req see (Count)
system.mem_ctrls.wrQLenPdf::13                      1                       # What write queue length does an incoming req see (Count)
system.mem_ctrls.wrQLenPdf::14                      1                       # What write queue length does an incoming req see (Count)
system.mem_ctrls.wrQLenPdf::15                  46658                       # What write queue length does an incoming req see (Count)
system.mem_ctrls.wrQLenPdf::16                  47695                       # What write queue length does an incoming req see (Count)
[...]
system.mem_ctrls.dram.perBankWrBursts::12       125236                       # Per bank write bursts (Count)
system.mem_ctrls.dram.perBankWrBursts::13       125664                       # Per bank write bursts (Count)
system.mem_ctrls.dram.perBankWrBursts::14       118132                       # Per bank write bursts (Count)
system.mem_ctrls.dram.perBankWrBursts::15       117928                       # Per bank write bursts (Count)
system.mem_ctrls.dram.totQLat             80721914500                       # Total ticks spent queuing (Tick)
system.mem_ctrls.dram.totBusLat           15784015000                       # Total ticks spent in databus transfers (Tick)
system.mem_ctrls.dram.totMemAccLat       139911970750                       # Total ticks spent from burst creation until serviced by the DRAM (Tick)
system.mem_ctrls.dram.avgQLat                25570.78                       # Average queueing delay per DRAM burst ((Tick/Count))
system.mem_ctrls.dram.avgBusLat               5000.00                       # Average bus latency per DRAM burst ((Tick/Count))
system.mem_ctrls.dram.avgMemAccLat           44320.78                       # Average memory access latency per DRAM burst ((Tick/Count))
system.mem_ctrls.dram.readRowHits             2847823                       # Number of row buffer hits during reads (Count)
system.mem_ctrls.dram.writeRowHits            1712184                       # Number of row buffer hits during writes (Count)
system.mem_ctrls.dram.readRowHitRate            90.21                       # Row buffer hit rate for reads (Ratio)
system.mem_ctrls.dram.writeRowHitRate           88.25                       # Row buffer hit rate for writes (Ratio)
system.mem_ctrls.dram.bytesPerActivate::samples       536935                       # Bytes accessed per row activation (Byte)
system.mem_ctrls.dram.bytesPerActivate::mean   607.527570                       # Bytes accessed per row activation (Byte)
system.mem_ctrls.dram.bytesPerActivate::gmean   491.023606                       # Bytes accessed per row activation (Byte)
system.mem_ctrls.dram.bytesPerActivate::stdev   351.255510                       # Bytes accessed per row activation (Byte)
system.mem_ctrls.dram.bytesPerActivate::0-127         8152      1.52%      1.52% # Bytes accessed per row activation (Byte)
system.mem_ctrls.dram.bytesPerActivate::128-255        23915      4.45%      5.97% # Bytes accessed per row activation (Byte)
system.mem_ctrls.dram.bytesPerActivate::256-383       188356     35.08%     41.05% # Bytes accessed per row activation (Byte)
system.mem_ctrls.dram.bytesPerActivate::384-511        19911      3.71%     44.76% # Bytes accessed per row activation (Byte)
system.mem_ctrls.dram.bytesPerActivate::512-639        56448     10.51%     55.27% # Bytes accessed per row activation (Byte)
system.mem_ctrls.dram.bytesPerActivate::640-767         9741      1.81%     57.09% # Bytes accessed per row activation (Byte)
system.mem_ctrls.dram.bytesPerActivate::768-895        32981      6.14%     63.23% # Bytes accessed per row activation (Byte)
system.mem_ctrls.dram.bytesPerActivate::896-1023         2967      0.55%     63.78% # Bytes accessed per row activation (Byte)
system.mem_ctrls.dram.bytesPerActivate::1024-1151       194464     36.22%    100.00% # Bytes accessed per row activation (Byte)
system.mem_ctrls.dram.bytesPerActivate::total       536935                       # Bytes accessed per row activation (Byte)
system.mem_ctrls.dram.bytesRead             202035392                       # Total bytes read (Byte)
system.mem_ctrls.dram.bytesWritten          124169472                       # Total bytes written (Byte)
system.mem_ctrls.dram.avgRdBW              682.227185                       # Average DRAM read bandwidth in MiBytes/s ((Byte/Second))
system.mem_ctrls.dram.avgWrBW              419.291831                       # Average DRAM write bandwidth in MiBytes/s ((Byte/Second))
system.mem_ctrls.dram.peakBW                 12800.00                       # Theoretical peak bandwidth in MiByte/s ((Byte/Second))
system.mem_ctrls.dram.busUtil                    8.61                       # Data bus utilization in percentage (Ratio)
system.mem_ctrls.dram.busUtilRead                5.33                       # Data bus utilization in percentage for reads (Ratio)
system.mem_ctrls.dram.busUtilWrite               3.28                       # Data bus utilization in percentage for writes (Ratio)
system.mem_ctrls.dram.pageHitRate               89.47                       # Row buffer hit rate, read and write combined (Ratio)
system.mem_ctrls.dram.power_state.pwrStateResidencyTicks::UNDEFINED 296140928500                       # Cumulative time (in ticks) in various power states (Tick)
system.mem_ctrls.dram.rank0.actEnergy      1879654980                       # Energy for activate commands per rank (pJ) (Joule)
system.mem_ctrls.dram.rank0.preEnergy       999045135                       # Energy for precharge commands per rank (pJ) (Joule)
system.mem_ctrls.dram.rank0.readEnergy    11202781380                       # Energy for read commands per rank (pJ) (Joule)
system.mem_ctrls.dram.rank0.writeEnergy    5010323040                       # Energy for write commands per rank (pJ) (Joule)
system.mem_ctrls.dram.rank0.refreshEnergy 23376603120.000004                       # Energy for refresh commands per rank (pJ) (Joule)
system.mem_ctrls.dram.rank0.actBackEnergy  68591894490                       # Energy for active background per rank (pJ) (Joule)
system.mem_ctrls.dram.rank0.preBackEnergy  55956521280                       # Energy for precharge background per rank (pJ) (Joule)
system.mem_ctrls.dram.rank0.actPowerDownEnergy            0                       # Energy for active power-down per rank (pJ) (Joule)
system.mem_ctrls.dram.rank0.prePowerDownEnergy            0                       # Energy for precharge power-down per rank (pJ) (Joule)
system.mem_ctrls.dram.rank0.selfRefreshEnergy            0                       # Energy for self refresh per rank (pJ) (Joule)
system.mem_ctrls.dram.rank0.totalEnergy  167016823425                       # Total energy per rank (pJ) (Joule)
system.mem_ctrls.dram.rank0.averagePower   563.977510                       # Core power per rank (mW) (Watt)
system.mem_ctrls.dram.rank0.totalIdleTime            0                       # Total Idle time Per DRAM Rank (Tick)
system.mem_ctrls.dram.rank0.pwrStateTime::IDLE 144115591000                       # Time in different power states (Tick)
system.mem_ctrls.dram.rank0.pwrStateTime::REF   9888580000                       # Time in different power states (Tick)
system.mem_ctrls.dram.rank0.pwrStateTime::SREF            0                       # Time in different power states (Tick)
system.mem_ctrls.dram.rank0.pwrStateTime::PRE_PDN            0                       # Time in different power states (Tick)
system.mem_ctrls.dram.rank0.pwrStateTime::ACT 142136757500                       # Time in different power states (Tick)
system.mem_ctrls.dram.rank0.pwrStateTime::ACT_PDN            0                       # Time in different power states (Tick)
system.mem_ctrls.dram.rank1.actEnergy      1954125180                       # Energy for activate commands per rank (pJ) (Joule)
system.mem_ctrls.dram.rank1.preEnergy      1038623190                       # Energy for precharge commands per rank (pJ) (Joule)
system.mem_ctrls.dram.rank1.readEnergy    11336792040                       # Energy for read commands per rank (pJ) (Joule)
system.mem_ctrls.dram.rank1.writeEnergy    5117249520                       # Energy for write commands per rank (pJ) (Joule)
system.mem_ctrls.dram.rank1.refreshEnergy 23376603120.000004                       # Energy for refresh commands per rank (pJ) (Joule)
system.mem_ctrls.dram.rank1.actBackEnergy  68884060530                       # Energy for active background per rank (pJ) (Joule)
system.mem_ctrls.dram.rank1.preBackEnergy  55710486720                       # Energy for precharge background per rank (pJ) (Joule)
system.mem_ctrls.dram.rank1.actPowerDownEnergy            0                       # Energy for active power-down per rank (pJ) (Joule)
system.mem_ctrls.dram.rank1.prePowerDownEnergy            0                       # Energy for precharge power-down per rank (pJ) (Joule)
system.mem_ctrls.dram.rank1.selfRefreshEnergy            0                       # Energy for self refresh per rank (pJ) (Joule)
system.mem_ctrls.dram.rank1.totalEnergy  167417940300                       # Total energy per rank (pJ) (Joule)
system.mem_ctrls.dram.rank1.averagePower   565.331990                       # Core power per rank (mW) (Watt)
system.mem_ctrls.dram.rank1.totalIdleTime            0                       # Total Idle time Per DRAM Rank (Tick)
system.mem_ctrls.dram.rank1.pwrStateTime::IDLE 143484656000                       # Time in different power states (Tick)
system.mem_ctrls.dram.rank1.pwrStateTime::REF   9888580000                       # Time in different power states (Tick)
system.mem_ctrls.dram.rank1.pwrStateTime::SREF            0                       # Time in different power states (Tick)
system.mem_ctrls.dram.rank1.pwrStateTime::PRE_PDN            0                       # Time in different power states (Tick)
system.mem_ctrls.dram.rank1.pwrStateTime::ACT 142767692500                       # Time in different power states (Tick)
system.mem_ctrls.dram.rank1.pwrStateTime::ACT_PDN            0                       # Time in different power states (Tick)
system.mem_ctrls.power_state.pwrStateResidencyTicks::UNDEFINED 296140928500                       # Cumulative time (in ticks) in various power states (Tick)
system.membus.transDist::ReadResp              324748                       # Transaction distribution (Count)
system.membus.transDist::WritebackDirty        485063                       # Transaction distribution (Count)
system.membus.transDist::CleanEvict            301255                       # Transaction distribution (Count)
system.membus.transDist::ReadExReq             465892                       # Transaction distribution (Count)
system.membus.transDist::ReadExResp            465892                       # Transaction distribution (Count)
system.membus.transDist::ReadSharedReq         324748                       # Transaction distribution (Count)
system.membus.pktCount_system.l2.mem_side_port::system.mem_ctrls.port      2367598                       # Packet count per connected requestor and responder (Count)
system.membus.pktCount_system.l2.mem_side_port::total      2367598                       # Packet count per connected requestor and responder (Count)
system.membus.pktCount::total                 2367598                       # Packet count per connected requestor and responder (Count)
system.membus.pktSize_system.l2.mem_side_port::system.mem_ctrls.port    326579968                       # Cumulative packet size per connected requestor and responder (Byte)
system.membus.pktSize_system.l2.mem_side_port::total    326579968                       # Cumulative packet size per connected requestor and responder (Byte)
system.membus.pktSize::total                326579968                       # Cumulative packet size per connected requestor and responder (Byte)
system.membus.snoops                                0                       # Total snoops (Count)
system.membus.snoopTraffic                          0                       # Total snoop traffic (Byte)
system.membus.snoopFanout::samples             790640                       # Request fanout histogram (Count)
system.membus.snoopFanout::mean                     0                       # Request fanout histogram (Count)
system.membus.snoopFanout::stdev                    0                       # Request fanout histogram (Count)
system.membus.snoopFanout::underflows               0      0.00%      0.00% # Request fanout histogram (Count)
system.membus.snoopFanout::0                   790640    100.00%    100.00% # Request fanout histogram (Count)
system.membus.snoopFanout::1                        0      0.00%    100.00% # Request fanout histogram (Count)
system.membus.snoopFanout::overflows                0      0.00%    100.00% # Request fanout histogram (Count)
system.membus.snoopFanout::min_value                0                       # Request fanout histogram (Count)
system.membus.snoopFanout::max_value                0                       # Request fanout histogram (Count)
system.membus.snoopFanout::total               790640                       # Request fanout histogram (Count)
system.membus.power_state.pwrStateResidencyTicks::UNDEFINED 296140928500                       # Cumulative time (in ticks) in various power states (Tick)
system.membus.reqLayer2.occupancy          9344626000                       # Layer occupancy (ticks) (Tick)
system.membus.reqLayer2.utilization               0.0                       # Layer utilization (Ratio)
system.membus.respLayer1.occupancy        13725986250                       # Layer occupancy (ticks) (Tick)
system.membus.respLayer1.utilization              0.0                       # Layer utilization (Ratio)
system.membus.snoop_filter.totRequests        1576958                       # Total number of requests made to the snoop filter. (Count)
system.membus.snoop_filter.hitSingleRequests       786318                       # Number of requests hitting in the snoop filter with a single holder of the requested data. (Count)
system.membus.snoop_filter.hitMultiRequests            0                       # Number of requests hitting in the snoop filter with multiple (>1) holders of the requested data. (Count)
system.membus.snoop_filter.totSnoops                0                       # Total number of snoops made to the snoop filter. (Count)
system.membus.snoop_filter.hitSingleSnoops            0                       # Number of snoops hitting in the snoop filter with a single holder of the requested data. (Count)
system.membus.snoop_filter.hitMultiSnoops            0                       # Number of snoops hitting in the snoop filter with multiple (>1) holders of the requested data. (Count)
system.tol2bus.transDist::ReadResp             491386                       # Transaction distribution (Count)
system.tol2bus.transDist::WritebackDirty      1292336                       # Transaction distribution (Count)
system.tol2bus.transDist::WritebackClean            6                       # Transaction distribution (Count)
system.tol2bus.transDist::CleanEvict           636170                       # Transaction distribution (Count)
system.tol2bus.transDist::ReadExReq            618194                       # Transaction distribution (Count)
system.tol2bus.transDist::ReadExResp           618194                       # Transaction distribution (Count)
system.tol2bus.transDist::ReadCleanReq            206                       # Transaction distribution (Count)
system.tol2bus.transDist::ReadSharedReq        491180                       # Transaction distribution (Count)
system.tol2bus.pktCount_system.cpu.icache.mem_side_port::system.l2.cpu_side_port          418                       # Packet count per connected requestor and responder (Count)
system.tol2bus.pktCount_system.cpu.dcache.mem_side_port::system.l2.cpu_side_port      3327610                       # Packet count per connected requestor and responder (Count)
system.tol2bus.pktCount::total                3328028                       # Packet count per connected requestor and responder (Count)
system.tol2bus.pktSize_system.cpu.icache.mem_side_port::system.l2.cpu_side_port        54272                       # Cumulative packet size per connected requestor and responder (Byte)
system.tol2bus.pktSize_system.cpu.dcache.mem_side_port::system.l2.cpu_side_port    490661632                       # Cumulative packet size per connected requestor and responder (Byte)
system.tol2bus.pktSize::total               490715904                       # Cumulative packet size per connected requestor and responder (Byte)
system.tol2bus.snoops                          819644                       # Total snoops (Count)
system.tol2bus.snoopTraffic                 124176128                       # Total snoop traffic (Byte)
system.tol2bus.snoopFanout::samples           1929224                       # Request fanout histogram (Count)
system.tol2bus.snoopFanout::mean             0.017452                       # Request fanout histogram (Count)
system.tol2bus.snoopFanout::stdev            0.130949                       # Request fanout histogram (Count)
system.tol2bus.snoopFanout::underflows              0      0.00%      0.00% # Request fanout histogram (Count)
system.tol2bus.snoopFanout::0                 1895555     98.25%     98.25% # Request fanout histogram (Count)
system.tol2bus.snoopFanout::1                   33669      1.75%    100.00% # Request fanout histogram (Count)
system.tol2bus.snoopFanout::2                       0      0.00%    100.00% # Request fanout histogram (Count)
system.tol2bus.snoopFanout::3                       0      0.00%    100.00% # Request fanout histogram (Count)
system.tol2bus.snoopFanout::4                       0      0.00%    100.00% # Request fanout histogram (Count)
system.tol2bus.snoopFanout::overflows               0      0.00%    100.00% # Request fanout histogram (Count)
system.tol2bus.snoopFanout::min_value               0                       # Request fanout histogram (Count)
system.tol2bus.snoopFanout::max_value               1                       # Request fanout histogram (Count)
system.tol2bus.snoopFanout::total             1929224                       # Request fanout histogram (Count)
system.tol2bus.power_state.pwrStateResidencyTicks::UNDEFINED 296140928500                       # Cumulative time (in ticks) in various power states (Tick)
system.tol2bus.reqLayer0.occupancy         4338340000                       # Layer occupancy (ticks) (Tick)
system.tol2bus.reqLayer0.utilization              0.0                       # Layer utilization (Ratio)
system.tol2bus.respLayer0.occupancy            927000                       # Layer occupancy (ticks) (Tick)
system.tol2bus.respLayer0.utilization             0.0                       # Layer utilization (Ratio)
system.tol2bus.respLayer1.occupancy        4992183000                       # Layer occupancy (ticks) (Tick)
system.tol2bus.respLayer1.utilization             0.0                       # Layer utilization (Ratio)
system.tol2bus.snoop_filter.totRequests       2218448                       # Total number of requests made to the snoop filter. (Count)
system.tol2bus.snoop_filter.hitSingleRequests      1108868                       # Number of requests hitting in the snoop filter with a single holder of the requested data. (Count)
system.tol2bus.snoop_filter.hitMultiRequests            1                       # Number of requests hitting in the snoop filter with multiple (>1) holders of the requested data. (Count)
system.tol2bus.snoop_filter.totSnoops           33668                       # Total number of snoops made to the snoop filter. (Count)
system.tol2bus.snoop_filter.hitSingleSnoops        33668                       # Number of snoops hitting in the snoop filter with a single holder of the requested data. (Count)
system.tol2bus.snoop_filter.hitMultiSnoops            0                       # Number of snoops hitting in the snoop filter with multiple (>1) holders of the requested data. (Count)
system.voltage_domain.voltage                       1                       # Voltage in Volts (Volt)
system.workload.inst.arm                            0                       # number of arm instructions executed (Count)
system.workload.inst.quiesce                        0                       # number of quiesce instructions executed (Count)

---------- End Simulation Statistics   ----------
